243
Properties=species:S:1:pos:R:3 Energy=-10760.9323031022 cnavg=9.72839506173 pbc="F F F"
Au      33.23634946      25.47278784      26.13184258 
Au      24.94904459      21.23096452      23.24145998 
Au      26.31000377      23.26299365      24.93874095 
Au      28.24051784      25.14048844      23.64547303 
Au      23.76946649      21.61475227      29.07451267 
Au      23.38957665      27.91836332      26.99018786 
Au      26.94612288      23.08486716      21.99913463 
Au      22.36231309      19.54363063      27.38774204 
Au      27.24679724      21.16041108      26.73727052 
Au      22.03517772      21.49105055      22.70417990 
Au      20.99757953      23.56123552      20.83587303 
Au      27.65476176      25.33178778      26.60092501 
Au      19.95454352      24.06446054      26.72992092 
Au      25.49829835      21.08301207      20.32108665 
Au      24.34585259      25.76451852      28.82123775 
Au      23.87027318      27.74495803      24.04757578 
Au      26.24217945      27.68509823      27.64020705 
Au      20.86072578      21.90122404      28.43329969 
Au      22.87051088      23.73320252      27.22010911 
Au      21.47621322      21.68653763      25.60243498 
Au      19.47648863      19.79005844      26.91475389 
Au      25.85190776      19.10822191      25.10388595 
Au      25.26369921      23.58441184      30.78414254 
Au      23.00862500      25.35255467      19.54641714 
Au      20.98567835      27.94922798      23.55463905 
Au      26.66965836      27.44202863      24.73529985 
Au      22.57864434      21.37398056      19.77848071 
Au      21.94368380      25.87849321      25.37864997 
Au      27.23912490      25.51870332      29.49307266 
Au      20.14425195      19.62449565      24.04934615 
Au      25.91657642      25.06631294      20.15098981 
Au      23.52024136      19.18965345      21.59418196 
Au      22.32885511      23.93458654      30.06955920 
Au      21.03510352      17.42939192      25.85827398 
Au      21.58457568      27.65643268      20.56816795 
Au      24.43460218      27.45141907      21.18309455 
Au      24.53921253      23.11155758      18.42911935 
Au      28.65639253      23.19363639      28.49129018 
Au      18.60116712      21.94265074      25.12173108 
Au      26.69584473      21.28164409      29.66798986 
Au      22.41977005      30.10214220      25.13628753 
Au      27.25756273      27.16885442      21.81105671 
Au      21.70888880      19.70909719      30.23582807 
Au      18.48016906      26.39516162      27.74600845 
Au      23.10618694      21.68484640      31.98470656 
Au      21.59171647      23.42700458      17.85636040 
Au      17.03541270      24.29160037      26.20643903 
Au      27.48349799      22.79760348      19.02041729 
Au      23.88467871      17.15346484      26.33077439 
Au      23.20478750      17.41179968      29.26517975 
Au      25.23729040      29.83844256      25.77761781 
Au      21.65066286      17.21496392      22.87809319 
Au      28.81171605      18.78241443      25.68739887 
Au      22.88684590      29.81430390      22.20729386 
Au      25.35249297      25.36172446      23.06022734 
Au      20.06210167      25.64552326      18.93150880 
Au      29.54336057      27.23176291      25.42197991 
Au      19.34590174      24.30357555      29.61005408 
Au      17.92915775      22.16201597      27.96303656 
Au      20.03054806      28.43997454      29.44661364 
Au      23.74464092      25.88160229      31.69466086 
Au      20.96452542      26.40376695      31.24446443 
Au      26.39173196      18.97709248      22.09540954 
Au      24.57891161      19.44679596      30.94730187 
Au      20.28736937      17.55019648      28.77098035 
Au      28.92868124      24.87005216      20.73170235 
Au      19.55181513      30.24875035      24.62023699 
Au      25.75710778      29.62971360      22.77856623 
Au      24.95211663      27.08710114      18.21202069 
Au      28.45758837      20.78538214      20.87034848 
Au      29.17157437      27.52520926      28.35620396 
Au      30.08989450      20.93607112      27.32452820 
Au      18.12053050      23.85678290      20.31430086 
Au      17.65236729      19.60622680      20.65923929 
Au      25.75069454      27.74461659      30.55693860 
Au      28.17991578      23.45395943      31.32139272 
Au      21.97578309      30.26349739      28.12274465 
Au      21.78324245      24.13822841      32.94286877 
Au      18.67819270      27.95027317      20.06569706 
Au      16.20709085      21.86943648      21.67877244 
Au      30.55035708      25.16906513      27.20798363 
Au      23.41903089      23.52878702      24.32811371 
Au      20.04531350      30.00527695      21.64684245 
Au      16.49355509      19.97078256      26.48316969 
Au      26.73883718      17.01273914      26.92081082 
Au      30.01899048      25.30830113      30.09250342 
Au      17.61353171      28.46264331      25.90184951 
Au      16.18449438      26.33164294      24.30157273 
Au      28.56611899      29.23227938      23.38215094 
Au      27.86808448      26.92566331      18.98153198 
Au      24.13155839      19.13358647      18.61914198 
Au      27.37008350      16.83667065      23.96944190 
Au      26.97014220      18.79338619      19.15098264 
Au      25.96586214      21.35913159      32.68810213 
Au      23.01564495      21.13947925      16.83514997 
Au      26.35333866      29.23281839      19.74748973 
Au      19.96833097      19.63306243      32.48323094 
Au      26.09420625      17.18280316      29.82770042 
Au      29.27258632      18.69284364      22.73332216 
Au      27.67966343      29.80128989      29.32745169 
Au      15.12861664      22.37976259      27.47102802 
Au      26.10457383      20.84233539      17.19530103 
Au      24.53377990      23.81254030      33.57864548 
Au      23.59166129      25.15036976      16.41245128 
Au      17.46840039      17.88741972      28.23265381 
Au      19.08722132      30.49217897      27.55657707 
Au      23.54341620      29.49857709      19.21590700 
Au      22.45067325      25.61721814      22.45685636 
Au      16.02108998      20.02250345      29.36823493 
Au      27.45790245      19.16922849      31.42324711 
Au      29.17833677      28.99077289      20.55137497 
Au      16.43924258      24.43124565      29.02220570 
Au      32.02322824      22.85701549      26.11314370 
Au      16.58612897      21.63141713      18.77824110 
Au      24.90626855      31.63521594      20.69927168 
Au      21.99865654      31.73877569      20.30249101 
Au      20.68959815      25.41788917      16.02510654 
Au      24.31640864      31.93310872      23.97307122 
Au      20.65065816      29.73339774      18.71556659 
Au      23.14954939      14.96881576      21.54522670 
Au      30.33539219      22.53466477      19.55891236 
Au      25.11018724      22.89891673      15.42625768 
Au      18.74777689      23.68668499      17.27567320 
Au      28.93997150      20.59993716      17.93447432 
Au      17.55714264      22.50617680      31.04856982 
Au      17.18424606      28.70580523      28.79789069 
Au      27.88271482      16.69173426      21.01265177 
Au      15.56750661      26.94807800      27.09093648 
Au      18.77233030      15.61564116      27.19077811 
Au      19.62830697      15.40130679      23.93863051 
Au      18.05535385      26.74818089      30.80567230 
Au      20.22196153      15.36033848      21.17072047 
Au      27.29799991      31.62251259      24.24620391 
Au      24.88690450      15.17765678      28.33243261 
Au      23.97117809      23.32305220      21.42167008 
Au      20.07271244      21.14881418      16.34740141 
Au      27.89098797      22.72853199      15.85500500 
Au      31.45762798      20.38560775      21.78331276 
Au      26.90520948      31.87585094      27.58289254 
Au      25.75507478      14.88108975      25.17994312 
Au      28.73490555      16.27722843      28.88644345 
Au      25.99747290      14.88634327      22.25463693 
Au      32.57140890      22.65064757      23.28255556 
Au      25.72733781      30.48956102      31.40184935 
Au      22.93969674      30.90647505      30.79879218 
Au      24.17140821      16.83543036      31.94769159 
Au      31.33024811      17.85392425      24.72460032 
Au      16.94836405      26.08752246      18.62362973 
Au      31.61023639      22.96793449      28.85805233 
Au      29.38564462      16.00490913      25.98212624 
Au      15.51775159      29.21720155      23.94113482 
Au      16.05881244      28.99891257      21.03609445 
Au      16.99643704      31.19268087      25.60323132 
Au      29.50734717      24.88769473      17.87468606 
Au      30.76769508      18.04651558      27.62721332 
Au      18.51090495      17.53678720      30.94924126 
Au      23.95163992      19.69849169      33.75683933 
Au      18.10038829      30.77180201      19.76225033 
Au      17.45684639      31.05087834      22.65328681 
Au      14.19677777      27.07318805      22.33064702 
Au      32.64016377      19.98534510      26.33477658 
Au      24.81009880      25.57653452      25.96000313 
Au      32.96266953      26.86886919      23.05382249 
Au      24.77756535      20.04454778      14.84892746 
Au      20.11228545      31.17144578      30.16484105 
Au      31.80975772      27.79926149      27.13986310 
Au      23.75826274      28.58373865      32.56903417 
Au      29.84852187      15.87200840      23.04706346 
Au      24.12679905      27.88583531      15.54901229 
Au      25.70371141      25.65593922      14.62752240 
Au      22.59949097      30.11595227      16.62521494 
Au      16.14390973      17.25009007      23.21216212 
Au      24.34844686      21.38235893      26.15322588 
Au      14.91714858      19.80066966      20.12740926 
Au      25.50605665      31.21831896      17.97487599 
Au      30.22781218      27.06437865      22.51962503 
Au      31.14172225      24.99981763      24.29515947 
Au      31.85242211      24.83038297      21.45159164 
Au      20.51249757      23.80013462      23.79965752 
Au      30.76068488      29.78248120      25.09941082 
Au      25.75465077      23.41384019      27.87736531 
Au      27.03846478      27.67140622      16.36941587 
Au      17.65229589      23.96714748      23.28234202 
Au      22.99252262      19.30305723      24.47854240 
Au      27.79765657      20.95321353      23.82559853 
Au      19.59357433      25.89841979      21.91762243 
Au      25.18035978      19.29152926      28.00059122 
Au      19.03906709      26.10264571      24.82903550 
Au      20.54960990      28.17897734      26.49287635 
Au      21.41189601      26.05985233      28.31234396 
Au      29.15656659      23.10142397      25.52831810 
Au      19.13989204      21.71570256      22.15948377 
Au      24.52562690      17.02888032      23.42291375 
Au      22.95487583      28.15837776      29.87413962 
Au      20.67132974      19.48236436      21.10426938 
Au      20.36715466      22.19118255      31.31537490 
Au      24.86826743      30.13485382      28.74904168 
Au      18.02702064      28.27476683      22.96798217 
Au      28.12142101      19.00575347      28.56609771 
Au      18.86806504      20.14030847      29.78915020 
Au      29.80618077      22.79533253      22.60916916 
Au      19.56945304      21.57004370      19.18739290 
Au      18.22821427      17.68136889      25.25800272 
Au      15.68903127      22.11150985      24.60064757 
Au      16.68577853      26.12415709      21.42124904 
Au      26.59032888      24.88740411      17.24892653 
Au      28.06257020      29.58108510      26.28268707 
Au      17.22481756      19.85232370      23.60415947 
Au      18.82671663      17.61839390      22.35467286 
Au      30.67942774      20.73708630      24.46043865 
Au      22.12527706      27.42289882      17.61944728 
Au      21.14183331      19.32291164      18.24205752 
Au      22.21218199      17.18102473      19.81420886 
Au      21.88589379      15.36195682      27.62836312 
Au      18.99955202      24.47607183      32.48159316 
Au      26.44899343      25.60700131      32.51709825 
Au      14.77699811      24.21461841      22.74083900 
Au      29.63024672      20.72084031      30.20260732 
Au      23.85381391      32.10504634      26.81658112 
Au      22.49530525      15.13273169      24.81664231 
Au      25.01452156      16.91742790      20.38481510 
Au      28.55706109      27.87724699      31.19177824 
Au      19.29639872      17.45720973      19.49090887 
Au      27.75722697      31.27179921      21.47507760 
Au      15.30420430      24.02085689      19.90515875 
Au      21.31510429      17.11234329      31.46655660 
Au      21.15480467      32.14938660      23.08449624 
Au      14.15894273      24.48753383      25.43571008 
Au      22.37011966      23.05376877      14.78245026 
Au      30.71717753      26.82106161      19.55123719 
Au      18.28517852      19.43097352      17.71384656 
Au      22.84728725      18.25181441      16.23925598 
Au      15.50657878      17.36428934      26.11939474 
Au      30.28993615      30.08287916      28.02530411 
Au      29.79832797      18.32535330      19.83876794 
Au      13.57502861      21.59424940      22.66951863 
Au      26.82344060      15.97907581      18.42756513 
Au      20.80960030      32.30490389      26.34645077 
Au      19.25459495      27.90578931      17.15711799 
Au      25.85139865      18.00214968      16.57629692 
Au      14.47446908      19.46528011      24.43709197 
Au      23.59568264      14.99503400      18.76002103 
Au      19.58300640      28.59146105      32.29761668 
