456
Properties=species:S:1:pos:R:3 Energy=-10760.9323031022 pbc="F F F" nshellint=54
Au      32.10861790      29.47090405      21.56072011 
Au      34.65366829      28.13763725      25.48832225 
Au      29.96415678      14.95310176      19.69120582 
Au      34.10810063      19.63401324      23.69120693 
Au      27.47836699      23.43501127      12.83293147 
Au      18.11597386      33.28587256      28.15051094 
Au      28.58652345      30.72836935      18.00829369 
Au      12.42142303      18.82985764      21.92609320 
Au      22.50683074      16.92617443      34.54451508 
Au      13.21693016      19.53716345      28.56190017 
Au      15.15138291      17.42774406      30.89472032 
Au      28.87979266      30.67810357      32.55448842 
Au      21.92717806      21.74068606      34.96181787 
Au      31.47449077      28.31904932      31.40181403 
Au      19.23153184      13.88114595      29.54300961 
Au      22.19715610      25.21650068      12.77108338 
Au      15.92497018      14.69397324      28.11747510 
Au      25.66524119      33.90373809      29.34404250 
Au      26.70856525      14.51898294      31.10513255 
Au      28.47830721      13.32390643      23.99523066 
Au      16.18887796      17.04268483      19.41835564 
Au      20.73073894      15.40542307      17.60094735 
Au      11.80200095      24.63671710      23.00472546 
Au      14.57943306      30.15079751      27.13258820 
Au      28.72727332      20.31628132      14.36018516 
Au      25.29416735      14.79040249      16.02607709 
Au      20.71675139      31.48060725      33.17519222 
Au      24.93030496      31.00554993      14.80893605 
Au      30.45156246      17.57847636      31.03729144 
Au      19.09521296      33.45923431      20.79080106 
Au      23.83800427      21.95270566      12.24607352 
Au      34.68202622      22.55183075      27.50570236 
Au      29.24143467      32.99186094      29.34550875 
Au      19.24268280      31.22484010      16.50399929 
Au      13.80383351      27.02698275      19.31216511 
Au      20.97599709      26.78362964      34.42387075 
S      20.72665880      15.81676515      33.48072466 
S      28.61488579      32.54001645      19.55749531 
S      23.88478171      22.85441816      35.74268683 
S      24.23734483      18.13832530      35.58909529 
S      12.36887988      18.20483965      24.19300691 
S      32.24538328      17.51118722      29.50651808 
S      31.46892559      14.88783077      21.50894316 
S      29.92732611      19.29870751      16.10880223 
S      28.23997533      22.02556434      33.31145212 
S      23.05576904      27.89391911      34.78483410 
S      13.47023828      29.96612514      25.05869073 
S      16.37815946      17.96502203      17.22822421 
S      32.67878320      23.20291222      19.81667593 
S      26.75837695      30.86634897      33.56446247 
S      22.78973132      32.48089471      32.69102810 
S      17.18064623      31.49676352      17.62034317 
S      11.26677678      22.34511508      22.87595764 
S      25.01066221      13.25404628      26.83988973 
S      33.89097113      29.07027103      27.50833443 
S      28.49666965      26.61409328      33.33746763 
S      23.87204794      24.17964414      11.46526605 
S      27.47895770      25.78748966      12.98033343 
S      19.12630494      33.39619576      30.27697750 
S      28.79172273      17.56527695      32.72204176 
S      21.28491207      34.00478567      24.66469890 
S      31.07377298      32.37777267      27.99599230 
S      28.90230744      29.21284289      16.19400232 
S      33.53895446      17.34696516      23.79369524 
S      34.88470321      21.86263718      23.53870308 
S      19.09570503      13.72261518      25.60599071 
S      20.88551728      33.66477328      19.25910949 
S      12.57590571      19.40278070      19.64496380 
S      18.69443975      30.37733059      33.67403392 
S      31.85019334      31.04172369      23.33663134 
S      35.32861097      27.25328307      23.41036363 
S      31.12818633      30.61540541      31.83967094 
S      23.05986531      13.27861124      23.31728284 
S      32.06119925      19.22535694      19.72272724 
S      28.71510736      14.61630329      17.72104171 
S      15.50794209      30.43431886      29.28909841 
S      31.57600631      21.91928543      31.05906677 
S      20.46917260      26.43186060      13.80568807 
S      17.16621436      26.94191354      16.34796277 
S      27.36432850      12.86593635      21.95988637 
S      16.83003624      33.55653858      26.18959378 
S      15.32543911      21.56858998      31.19282390 
S      21.13781878      16.65166014      15.60863272 
S      24.65935351      29.09381710      13.46586013 
S      20.14195186      22.14605978      14.13831409 
S      21.13324510      31.32388966      15.10011684 
S      23.68190866      34.17892094      28.10946933 
S      13.31847426      17.33396859      29.41099540 
S      24.38439305      33.55151145      22.13470773 
S      27.67338216      21.12226825      12.40449282 
S      16.45577678      22.99820034      16.74868479 
S      26.08469369      16.50839297      14.62774135 
S      16.94810718      14.02270587      30.13571021 
S      28.61486084      14.01884966      29.80581914 
S      27.57171952      33.90623136      30.74057450 
S      32.70840283      28.25429456      19.60041502 
S      24.98964255      14.67144088      32.71049508 
S      14.35467720      29.32073522      19.30555394 
S      13.41345542      25.82664689      27.33220630 
S      34.56606219      20.21485137      27.81722987 
S      30.22324140      23.59720673      15.95064833 
S      18.83974559      25.73724388      34.58049137 
S      35.28552938      24.81844620      27.27518916 
S      19.83162058      20.63578331      34.68672667 
S      32.12697188      26.08338923      31.07119946 
S      23.72299508      19.64305795      12.70207450 
S      17.25565220      33.46186450      22.26771813 
S      15.69413908      26.11518337      30.63891310 
S      11.85704772      26.99642173      23.02295330 
S      24.40375802      13.12920845      17.44132834 
S      13.07987087      24.77907218      19.18715953 
S      21.52053876      13.49043318      29.16665941 
S      16.75641565      17.43319370      32.62088087 
S      15.73988998      15.73543269      21.36210112 
S      14.72566254      15.06842649      26.12301203 
S      25.28464563      32.86612351      16.21188524 
S      29.65167846      13.56981271      26.02691123 
S      20.09182554      13.82128855      19.26382458 
S      27.22954440      33.52642837      25.74672453 
S      12.79048771      21.68738489      27.70839197 
C      21.26920490      14.08846223      33.20173176 
C      30.38987412      32.85881117      19.89985635 
C      23.27311794      24.25117045      36.76453545 
C      23.53500305      18.91603596      37.09574047 
C      11.04380729      19.19162345      24.98620146 
C      32.65910401      15.73587101      29.29832357 
C      31.63267662      13.08416504      21.81247218 
C      31.61559208      19.99382649      15.93447326 
C      28.05503236      23.05768955      34.81122705 
C      22.65667900      29.40711025      35.73834883 
C      13.21037019      31.68680100      24.47704004 
C      17.02602285      16.60276752      16.18234110 
C      33.19814760      24.18710926      18.36395990 
C      26.51798584      32.62442412      34.01949894 
C      22.43109023      34.13922689      31.99811057 
C      16.96419790      33.32011107      17.59725392 
C      10.52312206      22.21375198      21.20264176 
C      26.42686249      12.21059328      27.34569559 
C      34.81121886      28.23908796      28.85777650 
C      28.00075553      27.70357371      34.72280359 
C      23.09360344      24.07212805       9.80226132 
C      26.77159087      26.43772035      11.42056804 
C      17.67988797      33.27096107      31.40057291 
C      29.50762513      18.50724150      34.12421964 
C      19.80840276      35.06988268      24.47492781 
C      32.58187562      32.48548249      29.03035713 
C      28.66654522      30.20315135      14.67021944 
C      34.50182994      16.65569400      25.19433303 
C      35.66247314      21.99919502      21.88273752 
C      17.48479436      13.01083018      25.10563516 
C      21.81999945      35.15093372      19.79201133 
C      12.46474619      17.84889185      18.67525061 
C      18.78258426      29.82785425      35.42270470 
C      33.54743877      31.43812119      23.90252300 
C      35.82818026      28.66266693      22.34640739 
C      32.08667662      30.89063486      33.38516189 
C      21.55906118      12.28897701      22.97522150 
C      33.24599193      17.88331440      20.10414218 
C      28.18930488      12.86547407      17.88913379 
C      14.30368911      29.67252301      30.44453153 
C      32.99297923      20.76719390      31.18267823 
C      18.94270884      25.67622066      13.12559691 
C      15.95861085      28.29262120      16.08819885 
C      26.26245367      11.44188522      22.31192872 
C      15.16553133      33.93699436      26.86555803 
C      15.25133385      20.69177545      32.79832445 
C      21.88935052      15.47055563      14.42610767 
C      23.09232236      29.31255825      12.54093722 
C      20.31897341      20.75235874      12.96432960 
C      21.60708271      33.09395383      15.21250032 
C      24.10589479      35.49027863      26.89933859 
C      11.85703267      17.25194177      30.52493198 
C      25.92999118      34.52613919      22.23505533 
C      29.00892324      21.02123157      11.14373493 
C      16.47729377      21.81158666      15.35577529 
C      27.87488943      16.20742290      14.37634737 
C      16.45570234      12.25919886      30.31164157 
C      29.90669341      13.77596301      31.08814450 
C      28.01060965      35.68975022      30.83846642 
C      32.52405343      29.44455601      18.21527420 
C      25.92947172      14.98342648      34.25638034 
C      12.96644924      30.16937810      20.15362765 
C      12.07902792      26.94659357      26.77068948 
C      36.09512455      19.63501951      26.98180474 
C      30.52247756      24.81277942      14.61474370 
C      18.99865080      24.50923616      35.93553484 
C      36.59710076      24.74216663      25.99289975 
C      19.81762005      19.27722603      35.91636280 
C      32.11388306      25.37593287      32.76330788 
C      24.93357876      18.80487644      11.61214551 
C      15.76799335      33.65491428      21.21104391 
C      15.29066868      25.30237549      32.22797736 
C      10.75486075      27.42240758      21.61737399 
C      22.96032217      12.38897627      16.58329931 
C      12.95944414      24.40278291      17.39560476 
C      21.53362137      12.01550538      28.07650458 
C      16.76915402      15.76041158      33.36785412 
C      13.94333433      15.37662735      21.31864094 
C      12.94238988      15.06788849      26.54197614 
C      26.96068268      33.51999208      15.84964994 
C      31.41698435      13.27438213      25.62270050 
C      18.30691815      13.50639131      18.97340229 
C      28.92944076      34.20613012      25.77294061 
C      12.20055163      22.62231380      29.17180202 
H      22.30896508      14.04376528      32.86074423 
H      21.16020612      13.54258469      34.14605222 
H      20.60891356      13.65882538      32.43732002 
H      30.85447362      33.24671702      18.98619573 
H      30.44161852      33.61405775      20.69311701 
H      30.90464501      31.94989276      20.23284761 
H      24.14284469      24.85293971      37.05399565 
H      22.56920204      24.87954634      36.20627441 
H      22.79064800      23.84067049      37.65886398 
H      23.33263194      18.13021478      37.83208270 
H      24.29147572      19.60857522      37.48351374 
H      22.62154006      19.47583544      36.87007990 
H      11.21987101      19.16301878      26.06929872 
H      11.05184869      20.22947759      24.63675959 
H      10.08239862      18.72257004      24.74676068 
H      33.43513316      15.67101405      28.52600165 
H      33.04938471      15.34944255      30.24668719 
H      31.77992218      15.16301977      28.98618481 
H      30.66063885      12.62753463      22.02978817 
H      32.07782637      12.62519526      20.92252607 
H      32.30497204      12.94982165      22.66793148 
H      31.58008058      21.08195936      15.81021160 
H      32.16268915      19.74114342      16.85167183 
H      32.09265560      19.52471882      15.06651501 
H      27.81964453      22.39661588      35.65333333 
H      29.00785522      23.57152666      34.98569729 
H      27.25484801      23.79768447      34.68067883 
H      21.97009393      30.06284136      35.18505556 
H      22.21563519      29.11343101      36.69792070 
H      23.60064904      29.93758769      35.91285106 
H      12.51250020      32.18896214      25.15662896 
H      14.15854985      32.23229423      24.43289453 
H      12.77110076      31.62838151      23.47380047 
H      17.22996049      17.01892709      15.18858393 
H      17.95151235      16.18444327      16.59523540 
H      16.25622954      15.82610907      16.10951899 
H      32.43333048      24.92907930      18.10043543 
H      34.13904617      24.69163074      18.61245450 
H      33.34673400      23.49657002      17.52526089 
H      26.86062626      33.28816076      33.21913054 
H      25.44470257      32.77001993      34.19351399 
H      27.08049444      32.81416924      34.94100938 
H      21.58595905      34.10962201      31.30228367 
H      22.20673170      34.81389832      32.83246517 
H      23.33392783      34.47506310      31.47172975 
H      16.03024688      33.55136590      18.12266181 
H      17.80172217      33.82640174      18.09002122 
H      16.88564905      33.64350016      16.55319014 
H      11.15233422      22.70438084      20.45290644 
H      10.42326120      21.14758307      20.96551597 
H       9.53576852      22.68851647      21.23336619 
H      27.31548727      12.80519844      27.57485177 
H      26.12612065      11.64615642      28.23648373 
H      26.64934376      11.52205955      26.52138503 
H      35.80559866      28.69604126      28.92140972 
H      34.25433059      28.41283183      29.78762873 
H      34.90405299      27.16294542      28.67711330 
H      27.94478291      27.08472524      35.62659963 
H      28.76414794      28.48136688      34.84695938 
H      27.03107763      28.17466681      34.53643976 
H      22.98155246      25.09124542       9.41458800 
H      23.76584121      23.49948481       9.15312606 
H      22.11669604      23.58305116       9.84924648 
H      25.89406391      25.85865553      11.11533405 
H      26.48699196      27.48108751      11.60437484 
H      27.54998108      26.38729635      10.65038742 
H      18.06045129      33.10950084      32.41647490 
H      17.12891735      34.21698622      31.34892833 
H      17.02775045      32.44047572      31.11121259 
H      30.35375594      17.94282408      34.53150303 
H      29.82612518      19.50633282      33.80941573 
H      28.72159585      18.60102104      34.88350677 
H      18.88251015      34.48894253      24.44418046 
H      19.77930087      35.75752105      25.32864730 
H      19.91799892      35.63423850      23.54082796 
H      32.40608041      32.06788402      30.02697931 
H      33.36692525      31.91556509      28.51817672 
H      32.86640597      33.54161204      29.10278166 
H      29.42835633      30.99074567      14.64008678 
H      28.80279839      29.52490063      13.81915707 
H      27.65971588      30.64118383      14.62609965 
H      34.19349884      15.61030557      25.31656086 
H      35.56848782      16.69912284      24.94657569 
H      34.30210575      17.20919342      26.11752801 
H      34.96481567      21.70672170      21.09122997 
H      35.94458213      23.05025792      21.74559644 
H      36.55728996      21.36733215      21.86143573 
H      16.99891176      12.58664877      25.99283162 
H      16.83128423      13.76799949      24.66227246 
H      17.68572068      12.21964633      24.37311213 
H      22.71314986      35.21358382      19.15838738 
H      21.19144960      36.03511711      19.63864663 
H      22.12611474      35.07237767      20.84027603 
H      12.70081285      18.10087283      17.63455409 
H      13.18032107      17.10083003      19.03182262 
H      11.44051888      17.46591381      18.74578378 
H      18.73220595      30.71109611      36.06924185 
H      17.91526376      29.18130299      35.60166881 
H      19.69744318      29.25927352      35.61912405 
H      34.07132096      30.54218465      24.26358187 
H      34.09827316      31.89512892      23.07230675 
H      33.45451085      32.15802015      24.72472166 
H      35.98297409      28.26499279      21.33637252 
H      35.05169255      29.43374367      22.31069042 
H      36.76517387      29.07780218      22.73415590 
H      31.79855552      30.18115947      34.16581029 
H      33.15055321      30.77270515      33.14913105 
H      31.89227201      31.91501733      33.72282504 
H      21.34700066      11.68122539      23.86293223 
H      20.70187640      12.94000781      22.75994347 
H      21.76482657      11.64402661      22.11308702 
H      33.32938433      17.24720124      19.21479181 
H      34.21562702      18.34384460      20.32952177 
H      32.92263266      17.27775156      20.95530072 
H      27.43317058      12.66976250      17.11909917 
H      29.06819348      12.23129430      17.72603314 
H      27.76768731      12.67471428      18.88139359 
H      13.38192212      30.26464844      30.43239907 
H      14.09728125      28.63203930      30.17335201 
H      14.75351572      29.70296570      31.44445565 
H      32.81075332      20.09903197      32.03321426 
H      33.12207494      20.17387689      30.27325992 
H      33.89569932      21.36406680      31.35989896 
H      18.99190807      24.58266735      13.17491577 
H      18.10586155      26.03951159      13.73562621 
H      18.82761384      26.00780603      12.08741558 
H      15.96812675      29.01690316      16.90737644 
H      16.21849163      28.79889780      15.15080347 
H      14.96153703      27.84250573      16.00878447 
H      26.88101508      10.56187714      22.52009657 
H      25.59697263      11.65381797      23.15513180 
H      25.66081856      11.27042282      21.41094948 
H      14.48108240      34.05719911      26.01768478 
H      14.80833936      33.13330004      27.51907616 
H      15.22782212      34.87945284      27.42115036 
H      14.99006700      21.42969901      33.56655854 
H      14.47453396      19.91954809      32.73982805 
H      16.20888689      20.22382731      33.04539103 
H      22.08963920      16.02319976      13.50016800 
H      22.83186235      15.05833270      14.81247009 
H      21.17228268      14.66558166      14.22767734 
H      22.30484754      29.72970554      13.17753147 
H      23.28785478      29.98439823      11.69712165 
H      22.78879111      28.32319227      12.17493456 
H      19.31429238      20.36364597      12.75826170 
H      20.77278766      21.12927655      12.03960857 
H      20.94603322      19.95644805      13.37697672 
H      22.59669270      33.20339876      14.75244051 
H      20.86492663      33.67864778      14.65702440 
H      21.64276541      33.42621407      16.25511911 
H      24.14542376      36.44825295      27.43011946 
H      25.06649512      35.28079068      26.41551988 
H      23.30566626      35.50452011      26.14844109 
H      11.88921559      16.29098325      31.05094538 
H      11.85961035      18.07177876      31.24856248 
H      10.95515864      17.30592952      29.90433723 
H      26.06838404      35.04564671      21.27978036 
H      25.81806777      35.25143650      23.04976680 
H      26.79070701      33.87514947      22.43576640 
H      29.91346829      21.53699252      11.47771240 
H      29.22805235      19.96187993      10.96709541 
H      28.63620286      21.48232073      10.22196816 
H      15.49827526      21.32057971      15.31080409 
H      16.66189449      22.37709057      14.43464783 
H      17.26676524      21.06137870      15.49306771 
H      28.36559329      15.90211380      15.30660987 
H      27.98352873      15.42188019      13.61953556 
H      28.31559465      17.14543965      14.01462086 
H      15.37311486      12.22791535      30.47957198 
H      16.70989089      11.68231391      29.41813208 
H      16.97888243      11.84707226      31.18221940 
H      30.84962850      13.55690082      30.57363186 
H      30.02300567      14.67052242      31.71011832 
H      29.62000373      12.91778722      31.70632974 
H      28.11562079      36.13072566      29.84333337 
H      27.21614155      36.20387324      31.39159667 
H      28.95727428      35.77307434      31.38442870 
H      32.68812490      28.89212624      17.28239665 
H      31.52261189      29.89052194      18.19924286 
H      33.28649496      30.22412832      18.32488819 
H      26.66320518      15.78382006      34.11591239 
H      25.20885455      15.27032369      35.03185943 
H      26.43699591      14.05343505      34.53699043 
H      12.80287793      29.75029355      21.15169635 
H      13.23580239      31.22918860      20.23778939 
H      12.06198807      30.06599059      19.54343783 
H      12.30779692      27.40889743      25.80650234 
H      11.15995920      26.35492754      26.68242892 
H      11.95224098      27.72743736      27.53048376 
H      36.11277275      19.93822762      25.92902358 
H      36.95685299      20.05479448      27.51286185 
H      36.11932091      18.54133691      27.05310751 
H      29.80880754      25.64089579      14.65765325 
H      31.54274710      25.19584356      14.73832726 
H      30.42766380      24.30175203      13.64882442 
H      19.84197386      23.82965596      35.76529201 
H      19.13005089      25.05040821      36.87945286 
H      18.06835453      23.92957203      35.96535097 
H      36.80480132      25.76891776      25.66793385 
H      37.49095961      24.30166366      26.44917264 
H      36.27627069      24.13894486      25.13738754 
H      19.88567864      19.70999587      36.92115977 
H      18.86211265      18.75037052      35.80518481 
H      20.64209978      18.57100503      35.74603215 
H      32.18388961      24.28602234      32.65565787 
H      32.98604474      25.76082309      33.30385903 
H      31.18998736      25.63917672      33.29040406 
H      25.87687875      19.35911097      11.57258799 
H      25.10394490      17.80381197      12.02717386 
H      24.49156746      18.73020415      10.61181982 
H      14.89153793      33.57611815      21.86560217 
H      15.79161743      34.64596379      20.74383706 
H      15.72767298      32.87338806      20.44545825 
H      15.21924557      26.07794503      32.99933313 
H      14.32677253      24.79308455      32.11022752 
H      16.06331588      24.57212298      32.50122368 
H      11.11564532      26.98185803      20.68122863 
H       9.74812106      27.05556494      21.84696596 
H      10.73437760      28.51494378      21.52933925 
H      22.45470876      11.73796377      17.30633744 
H      22.25800404      13.15701620      16.24325906 
H      23.32370421      11.79750427      15.73547457 
H      12.72038673      23.33603008      17.30609558 
H      12.15112107      25.00333798      16.96393074 
H      13.90577134      24.60455603      16.88327333 
H      22.55239113      11.91899083      27.68003667 
H      21.27689590      11.13832127      28.68117916 
H      20.82265505      12.13278188      27.25099575 
H      16.72325901      14.98509852      32.59628140 
H      17.70189790      15.66741302      33.93772163 
H      15.90577608      15.68397160      34.03893237 
H      13.34748657      16.29972538      21.33928876 
H      13.72102476      14.79760743      20.41484341 
H      13.71157947      14.77729343      22.20745462 
H      12.62118335      14.02517496      26.64793416 
H      12.75566026      15.62109918      27.46804832 
H      12.41362869      15.54454370      25.70732050 
H      27.71809189      32.73071858      15.89535915 
H      26.94740059      33.98352619      14.85686103 
H      27.18453648      34.27410134      16.61349545 
H      31.75360076      13.94550536      24.82594860 
H      31.99574239      13.46450487      26.53468413 
H      31.54065005      12.22879338      25.31856199 
H      18.19848687      12.98780301      18.01402671 
H      17.94948393      12.86334023      19.78645565 
H      17.72967768      14.43848140      18.97010937 
H      29.02690676      34.88603435      24.91786426 
H      29.07133487      34.75834911      26.70998744 
H      29.68026856      33.41348329      25.70270400 
H      12.20283184      23.68453188      28.89592595 
H      11.18141213      22.29229025      29.40291565 
H      12.85985551      22.45994517      30.03184989 
